         231
Cu Cu    -734.333565   1.9791
 Cu         10.95519         7.39460        16.52401   1
 Cu         14.86152         7.23857        19.46307   1
 Cu         14.56278        10.60015        15.72845   1
 Cu         12.46656         9.66883        18.45018   1
 Cu         10.38215         8.75528        21.18696   1
 Cu         10.08345        12.11689        17.45236   1
 Cu         18.81955         7.22206        22.48890   1
 Cu         18.57005        10.52462        18.73187   1
 Cu         16.46065         9.60019        21.48602   1
 Cu         14.35324         8.66375        24.23763   1
 Cu         18.22524        13.91096        15.05793   1
 Cu         16.15978        12.98670        17.72370   1
 Cu         14.05669        12.06157        20.47674   1
 Cu         11.94808        11.12812        23.22275   1
 Cu          9.90666        10.24004        25.91915   1
 Cu         13.75069        15.44512        16.70378   1
 Cu         11.64722        14.51463        19.46042   1
 Cu          9.53384        13.58429        22.20952   1
 Cu          9.31230        16.92882        18.48804   1
 Cu         22.68111         7.34538        25.48810   1
 Cu         22.51965        10.56685        21.81143   1
 Cu         20.43810         9.63552        24.54424   1
 Cu         18.33915         8.72199        27.26974   1
 Cu         22.22404        13.89417        18.11508   1
 Cu         20.18830        12.96991        20.80354   1
 Cu         18.07834        12.04484        23.55125   1
 Cu         15.97669        11.11134        26.30247   1
 Cu         13.90561        10.22327        28.97612   1
 Cu         21.80519        17.20280        14.53749   1
 Cu         19.84270        16.33674        17.09974   1
 Cu         17.77799        15.42557        19.79546   1
 Cu         15.67576        14.49786        22.54021   1
 Cu         13.57355        13.57018        25.28500   1
 Cu         11.50890        12.65909        27.98078   1
 Cu          9.54647        11.79312        30.54311   1
 Cu         17.44600        18.77250        16.10439   1
 Cu         15.37486        17.88437        18.77795   1
 Cu         13.27317        16.95086        21.52914   1
 Cu         11.16321        16.02583        24.27686   1
 Cu          9.12751        15.10165        26.96539   1
 Cu         13.01238        20.27363        17.81057   1
 Cu         10.91338        19.36010        20.53604   1
 Cu          8.83182        18.42883        23.26886   1
 Cu          8.67035        21.65017        19.59205   1
 Cu         22.03926        12.06673        26.59229   1
 Cu         21.81768        15.41141        22.87098   1
 Cu         19.70434        14.48100        25.62001   1
 Cu         17.60091        13.55054        28.37661   1
 Cu         21.44488        18.75576        19.16147   1
 Cu         19.40343        17.86761        21.85778   1
 Cu         17.29482        16.93414        24.60369   1
 Cu         15.19178        16.00903        27.35669   1
 Cu         13.12639        15.08486        30.02247   1
 Cu         16.99823        20.33200        20.84285   1
 Cu         14.89081        19.39556        23.59438   1
 Cu         12.78143        18.47117        26.34846   1
 Cu         12.53186        21.77365        22.59138   1
 Cu         21.26809        16.87873        27.62812   1
 Cu         20.96932        20.24043        23.89361   1
 Cu         18.88492        19.32686        26.63029   1
 Cu         16.78873        18.39555        29.35193   1
 Cu         16.48992        21.75718        25.61736   1
 Cu         20.39626        21.60107        28.55651   1
 Cu         12.88633         7.28304        17.96533   1
 Cu         10.49697         9.72252        16.95984   1
 Cu         16.84211         7.22049        20.97387   1
 Cu         16.56723        10.54686        17.20752   1
 Cu         14.46257         9.61857        19.96192   1
 Cu         12.35228         8.68684        22.71084   1
 Cu         14.15112        13.01367        16.19077   1
 Cu         12.04446        12.08742        18.94433   1
 Cu          9.93615        11.15366        21.69408   1
 Cu          9.68980        14.52288        17.96402   1
 Cu         20.78314         7.25001        24.00222   1
 Cu         20.56638        10.53018        20.26488   1
 Cu         18.45550         9.60194        23.01443   1
 Cu         16.35152         8.67016        25.76808   1
 Cu         20.24619        13.88106        16.55820   1
 Cu         18.17958        12.96330        19.25628   1
 Cu         16.06910        12.04330        22.01186   1
 Cu         13.96206        11.10213        24.76293   1
 Cu         11.89388        10.19524        27.46347   1
 Cu         17.82871        16.34929        15.54087   1
 Cu         15.75684        15.43689        18.23674   1
 Cu         13.65678        14.50624        20.99671   1
 Cu         11.53930        13.57573        23.74338   1
 Cu          9.47636        12.66349        26.44614   1
 Cu         13.37193        17.87561        17.23731   1
 Cu         11.26653        16.94177        19.98917   1
 Cu          9.15701        16.01564        22.74048   1
 Cu          8.95835        19.32295        19.02609   1
 Cu         22.39317         9.67260        26.05415   1
 Cu         22.19450        12.98003        22.33992   1
 Cu         20.08501        12.05385        25.09119   1
 Cu         17.97967        11.12001        27.84305   1
 Cu         21.87520        16.33232        18.63443   1
 Cu         19.81223        15.42000        21.33710   1
 Cu         17.69476        14.48946        24.08372   1
 Cu         15.59474        13.55883        26.84368   1
 Cu         13.52293        12.64650        29.53959   1
 Cu         19.45770        18.80057        17.61710   1
 Cu         17.38946        17.89362        20.31755   1
 Cu         15.28240        16.95244        23.06855   1
 Cu         13.17195        16.03247        25.82412   1
 Cu         11.10540        15.11478        28.52224   1
 Cu         14.99997        20.32554        19.31232   1
 Cu         12.89596        19.39377        22.06589   1
 Cu         10.78509        18.46558        24.81542   1
 Cu         10.56829        21.74562        21.07798   1
 Cu         21.66178        14.47269        27.11640   1
 Cu         21.41535        17.84203        23.38648   1
 Cu         19.30708        16.90823        26.13614   1
 Cu         17.20046        15.98201        28.88962   1
 Cu         18.99918        20.30891        22.36970   1
 Cu         16.88889        19.37717        25.11851   1
 Cu         14.78427        18.44890        27.87283   1
 Cu         14.50931        21.77527        24.10649   1
 Cu         20.85452        19.27314        28.12067   1
 Cu         18.46513        21.71267        27.11515   1
 Cu         14.72581         8.89071        17.56888   1
 Cu         12.61059         7.95729        20.33067   1
 Cu         12.30831        11.35894        16.55155   1
 Cu         10.19307        10.42552        19.31333   1
 Cu         18.70694         8.84928        20.60533   1
 Cu         16.59293         7.91637        23.36551   1
 Cu         18.40825        12.21112        16.87047   1
 Cu         16.32298        11.28495        19.59618   1
 Cu         14.20310        10.34946        22.36403   1
 Cu         12.11327         9.43319        25.08960   1
 Cu         15.99215        14.67793        15.85372   1
 Cu         13.90023        13.75854        18.57664   1
 Cu         11.78034        12.82305        21.34449   1
 Cu          9.69714        11.90002        24.07285   1
 Cu         11.51247        16.19470        17.57775   1
 Cu          9.39846        15.26183        20.33792   1
 Cu         22.63339         8.92257        23.66345   1
 Cu         20.54290         8.00004        26.39291   1
 Cu         22.38090        12.22745        19.95977   1
 Cu         20.32813        11.29475        22.67158   1
 Cu         18.21238        10.36106        25.43403   1
 Cu         16.12299         9.46583        28.13049   1
 Cu         22.04358        15.56104        16.28875   1
 Cu         20.02992        14.65136        18.94264   1
 Cu         17.93730        13.73212        21.66984   1
 Cu         15.82656        12.80065        24.42575   1
 Cu         13.73976        11.87554        27.15543   1
 Cu         11.69739        10.99533        29.79729   1
 Cu         19.65424        18.00053        15.28327   1
 Cu         17.61181        17.12022        17.92506   1
 Cu         15.52497        16.19507        20.65468   1
 Cu         13.41422        15.26361        23.41058   1
 Cu         11.32163        14.34443        26.13783   1
 Cu          9.30803        13.43484        28.79180   1
 Cu         15.22859        19.52986        16.94993   1
 Cu         13.13914        18.63460        19.64632   1
 Cu         11.02336        17.70094        22.40875   1
 Cu          8.97060        16.76831        25.12062   1
 Cu         10.80859        20.99552        18.68731   1
 Cu          8.71806        20.07303        21.41676   1
 Cu         21.95309        13.73379        24.74250   1
 Cu         19.83911        12.80088        27.50262   1
 Cu         21.65439        17.09573        21.00773   1
 Cu         19.57118        16.17263        23.73600   1
 Cu         17.45133        15.23714        26.50377   1
 Cu         15.35947        14.31779        29.22668   1
 Cu         19.23824        19.56258        19.99096   1
 Cu         17.14838        18.64628        22.71644   1
 Cu         15.02852        17.71080        25.48421   1
 Cu         12.94329        16.78468        28.20990   1
 Cu         14.75850        21.07936        21.71487   1
 Cu         12.64450        20.14648        24.47498   1
 Cu         21.15843        18.57015        25.76720   1
 Cu         19.04322        17.63671        28.52889   1
 Cu         18.74087        21.03844        24.74983   1
 Cu         16.62566        20.10501        27.51152   1
 Cu         12.73692         8.96403        16.09780   1
 Cu         10.64637         8.04150        18.82737   1
 Cu         16.71732         8.85756        19.08430   1
 Cu         14.60331         7.92465        21.84450   1
 Cu         16.39499        12.25251        15.38348   1
 Cu         14.31142        11.31983        18.07185   1
 Cu         12.19560        10.38614        20.83440   1
 Cu         10.13690         9.49088        23.55444   1
 Cu         11.90011        13.77586        17.05711   1
 Cu          9.78607        12.84297        19.81731   1
 Cu         20.69176         8.86581        22.12978   1
 Cu         18.57659         7.93239        24.89148   1
 Cu         20.41779        12.20273        18.40680   1
 Cu         18.32943        11.27660        21.13011   1
 Cu         16.20958        10.34112        23.89792   1
 Cu         14.12287         9.42480        26.62584   1
 Cu         20.04393        15.56946        14.76000   1
 Cu         18.00614        14.65981        17.39543   1
 Cu         15.91832        13.74051        20.12632   1
 Cu         13.80755        12.80904        22.88226   1
 Cu         11.71592        11.88399        25.60829   1
 Cu          9.69768        11.00374        28.26862   1
 Cu         15.60059        17.12103        16.37962   1
 Cu         13.50931        16.19787        19.10171   1
 Cu         11.38945        15.26240        21.86951   1
 Cu          9.30562        14.34314        24.59864   1
 Cu         11.14592        18.61198        18.11268   1
 Cu          9.03070        17.67858        20.87437   1
 Cu         22.32080        11.31702        24.20594   1
 Cu         20.20564        10.38359        26.96761   1
 Cu         22.04591        14.65261        20.48185   1
 Cu         19.96208        13.73328        23.21091   1
 Cu         17.84225        12.79780        25.97868   1
 Cu         15.75103        11.87467        28.70080   1
 Cu         21.65391        17.99212        16.81200   1
 Cu         19.63562        17.11179        19.47225   1
 Cu         17.54396        16.18669        22.19820   1
 Cu         15.43321        15.25522        24.95410   1
 Cu         13.34545        14.33597        27.68501   1
 Cu         11.30773        13.42642        30.32050   1
 Cu         17.22867        19.57095        18.45465   1
 Cu         15.14192        18.65461        21.18249   1
 Cu         13.02206        17.71914        23.95025   1
 Cu         10.93373        16.79307        26.67358   1
 Cu         12.77487        21.06327        20.18882   1
 Cu         10.65967        20.12988        22.95047   1
 Cu         21.56547        16.15267        25.26319   1
 Cu         19.45147        15.21976        28.02331   1
 Cu         21.21460        19.50487        21.52617   1
 Cu         19.15589        18.60956        24.24611   1
 Cu         17.04010        17.67588        27.00856   1
 Cu         14.95659        16.74324        29.69688   1
 Cu         16.74814        21.07110        23.23595   1
 Cu         14.63413        20.13821        25.99607   1
 Cu         20.70510        20.95419        26.25317   1
 Cu         18.61455        20.03164        28.98266   1
