         305
Cu Cu     -986.155093        0.000000     -986.155093   0.02887-986.15509
Cu     -2.33086767      1.17335984      7.13143772
Cu      0.86665696     -2.42096995      7.88350997
Cu     -6.72193047     -4.69961141     17.19720451
Cu    -10.56308502      2.57103618      7.55722089
Cu      1.03091170      1.94668237     15.12737466
Cu     -9.28294228     -8.26126910      9.34507634
Cu     -2.31566804      4.58597595      9.87804151
Cu     -8.90001296     -0.01726657      2.73128349
Cu     -8.69660856      3.71015314     15.30907418
Cu     -7.88533155     -2.38878705     17.06300578
Cu     -7.31806052     -7.58379619      4.63272609
Cu     -3.29517172      4.24789055     12.22956387
Cu      1.01642401      4.03965980     11.16759156
Cu     -0.98294180     -8.73235388      9.92532323
Cu     -1.44365971     -5.93816467      7.83475355
Cu     -9.89870740     -2.04218194     15.49854549
Cu     -4.30962263     -1.48134782      3.56024503
Cu     -6.36851569      3.89379228      7.19668705
Cu     -2.75712670     -2.68640265     17.42036334
Cu     -3.05046442     -6.49241902     11.68457433
Cu     -0.83606426     -3.85898543     10.68748382
Cu     -8.43583738      6.13500942      8.95498415
Cu      1.30218518      1.41689856      4.88768623
Cu     -6.65880782      0.09406914      1.46266019
Cu     -3.89619425     -0.37534834     17.36106523
Cu    -11.45558120     -5.90964696     12.44320717
Cu    -10.00727557      2.17503883     10.00131344
Cu    -11.96448933      3.46925551      9.35413232
Cu     -5.25853709     -9.95216688     10.21964839
Cu     -1.77798101     -4.64369033      1.95606023
Cu     -5.03493138     -8.43187415      8.27634538
Cu     -1.90161783      4.01413705      3.17181249
Cu      1.90288650     -0.06260494     13.80064873
Cu     -2.17752659      3.65567531      7.48751506
Cu     -7.65703799     -0.97019301     15.06763388
Cu     -6.33228168      7.23733287      9.98950874
Cu     -4.70868816     -1.29746852      9.44063712
Cu    -11.32136602     -2.53409455      5.08346571
Cu    -13.30329834     -5.51113720     10.81138621
Cu    -12.59349127     -3.63206728     12.29692571
Cu    -11.34857096     -6.89075505     10.09121749
Cu     -8.22491806     -5.55160635      7.36269323
Cu     -9.42643183     -4.17466578      1.50494861
Cu     -7.97211453      3.34187683     11.04622893
Cu      0.07731020      3.68151818      4.78532652
Cu     -1.95549201      5.09887015      5.47887257
Cu     -9.36116687      4.23172015     12.90252095
Cu      1.72214409      1.85615159      8.41810745
Cu     -6.49352885     -0.22722266     17.17892215
Cu      0.82730543      1.55948611     10.75643870
Cu     -8.82667189     -1.06418984      9.15478981
Cu     -2.92008148     -2.36631472      1.70090061
Cu     -1.19142281      2.95563622     11.51716692
Cu     -0.65842903     -3.88268063      4.03066888
Cu      3.17848603      1.03854954      6.58836629
Cu     -3.74020988     -1.98752879     13.40232759
Cu     -4.27882395      1.49468983      5.55226870
Cu     -4.88230107      0.29453022     13.25305699
Cu     -8.77231012      1.30081128     14.87533947
Cu     -8.02465555      0.86389618     10.62822817
Cu      2.86680238     -3.74401651      8.52741749
Cu     -6.00679516      4.24896903      2.88871006
Cu    -13.19222202     -3.20660109      9.85480778
Cu    -10.41721180     -2.55324021     11.96176982
Cu     -9.26990970     -4.84915964     12.10999530
Cu     -2.48260710      1.75703843     17.28324144
Cu      2.25946064     -3.30872679      6.02796257
Cu     -4.66140746      5.21104444     14.11698891
Cu     -1.95132688     -4.76098633     16.12147968
Cu      0.55597552     -7.26183613      8.47919507
Cu     -6.14802005      5.33753682      5.18847132
Cu    -11.02058516     -2.12514974      9.50004252
Cu      0.59146513     -4.77226562      8.88257973
Cu     -4.18251649     -4.84623301     17.37343300
Cu    -11.13889208     -4.45099498     10.46601662
Cu     -0.68298419      1.77536628      3.23194800
Cu     -0.05205316     -6.82749119      5.97889176
Cu      0.00742201      1.58200081     17.37614717
Cu      1.60347155     -0.47067802      9.38470108
Cu     -4.16200559      3.94613821      5.88193176
Cu      2.68885405     -2.12331152     12.40765714
Cu     -7.31880175     -5.20377842     13.73914807
Cu     -5.23687966      2.23877215      1.52761090
Cu     -0.90498743      0.33324028      5.24129515
Cu     -2.36945784      0.12982221     13.37665722
Cu    -12.28255880      1.14820503     10.35823176
Cu     -1.36174674      0.48574518     11.09279969
Cu     -5.52082104     -2.21795140      1.51994387
Cu     -7.35488343     -8.70269968     10.99447880
Cu      1.35773493     -5.21477718      4.57725934
Cu     -6.16112761      3.65011046     15.57420407
Cu     -9.97264206      4.66524040     10.40369105
Cu     -6.22258390     -9.26383083      6.26743259
Cu     -0.15215743      1.22255158     13.10544749
Cu    -10.44853495     -4.54161967      3.75461809
Cu     -3.68240626     -9.40865011      6.44487246
Cu     -8.22700967     -1.48944526     11.60280660
Cu      1.93104477      4.29632559      8.79096323
Cu     -3.54928871     -0.59122221     11.39099957
Cu      1.39484551     -2.83557921     10.36306061
Cu     -3.56065725     -6.98928620      6.82632312
Cu     -2.08345105     -5.45402586      5.39345078
Cu     -4.49261851      3.43071739     10.20992548
Cu     -3.95329913     -3.41041548     15.39886303
Cu     -1.07729464      5.40512122     11.91524701
Cu     -5.47688390     -7.95902845     14.99336817
Cu     -8.21515082      4.15241206      4.21314082
Cu     -7.22778848      5.27855272     13.89025710
Cu     -5.67606872     -0.60996781      5.48000175
Cu     -4.05990198      2.92439738      3.56291026
Cu     -8.07641040     -2.07373773      1.45004906
Cu     -6.51264762     -3.26291404     15.22113412
Cu     -7.86282843      5.79187197     11.44499300
Cu     -4.38125168      2.51030333      7.86455237
Cu     -0.37904117     -2.51216172      1.98563077
Cu     -7.39651284      0.42083194     13.03594956
Cu     -0.35588225     -1.14549355     14.08417077
Cu      1.56001391     -2.86570612      3.60508923
Cu     -4.49527372      0.08422367      7.51585131
Cu      2.54807398     -6.06695126      9.53126021
Cu     -6.45845987      4.82084837      9.59044122
Cu    -10.39356439      4.00950989      5.58218234
Cu     -8.36825445      5.21682082      6.55170511
Cu      1.14452038     -5.16970333     11.32645396
Cu    -11.79328705      1.88145672      5.55492646
Cu    -12.10794627     -0.47484599      6.47804633
Cu     -5.03619010     -5.10876127     11.01578852
Cu    -13.00486275     -0.81989964      8.86598550
Cu     -2.95962210     -7.41771878      9.28903231
Cu     -8.51030604     -2.92976619     13.64104781
Cu     -1.34150375     -0.51941269     17.43177073
Cu     -2.70032513      2.09363648      1.70289972
Cu      3.88618151      2.91725939      8.07345651
Cu      2.89834243      0.27976306     11.41327957
Cu     -9.40550058      1.74855079     12.45960469
Cu     -2.06495773      6.10583295      7.88205963
Cu     -9.02154094     -0.08579567     16.87897783
Cu     -9.16160836     -5.83844821      9.73936635
Cu    -10.28138023     -0.17512630     11.00000564
Cu     -4.92469208     -6.02693614      8.66892171
Cu    -10.50212435      4.99095411      7.92971425
Cu     -3.37843553     -2.14736856      7.66380159
Cu     -3.08625725     -9.83360638      8.88806227
Cu     -2.59621352     -0.26227892      9.10541715
Cu     -2.09792061      4.98972358     14.24400591
Cu     -1.75539051     -1.62258099      3.80952339
Cu     -7.85267010     -0.72853640      6.81678821
Cu     -4.27305989      8.23684563     10.99035609
Cu     -9.83458179      0.57458391      6.17267055
Cu     -0.88520107     -6.30674406     10.31539656
Cu      3.34492861     -4.14542974     11.00009232
Cu    -11.79596522     -1.67788829     13.79910378
Cu     -3.16135727     -8.94227283     11.28676186
Cu      0.19932365     -1.97823173      5.44192536
Cu      0.97501728     -6.60945376     13.30061710
Cu     -0.44594256      0.79279197      8.76338633
Cu     -1.20064004     -6.75284253     14.66797774
Cu      0.26734898     -4.63990087     14.75769583
Cu     -0.00408828     -4.34622773      6.42204310
Cu     -9.44761083     -7.33734635     11.74603193
Cu     -5.10576921     -1.11494933     15.32093038
Cu     -7.46684791      2.16265683      2.76243787
Cu     -5.95796316      1.96741062     11.64873057
Cu     -2.43822198      2.15902412      9.48741128
Cu     -1.73173798     -3.31632727     14.11252802
Cu     -6.24891933      1.17504174     15.09661687
Cu     -8.53342294      3.70894628      8.56653908
Cu     -3.25226330     -6.24480823      3.30432675
Cu     -4.05110296      6.37301740      6.26121960
Cu     -6.97862713     -4.75577756      9.39348540
Cu     -8.97060556     -3.38907029     10.11970300
Cu     -9.26505733     -3.81835518      5.77679527
Cu     -8.05464880     -3.08273272      7.78948019
Cu     -4.81525035     -3.64155333      9.05845599
Cu     -5.85229151     -6.09670350      3.12342506
Cu      0.41557124     -3.17293617     12.71112130
Cu      3.00528145      2.62605211     10.39236487
Cu     -7.08645525     -3.77199027     11.75079816
Cu    -12.42230012     -5.22107971      8.49215539
Cu      0.48633985     -0.55148106      3.38305594
Cu    -10.24784597     -2.19242358      2.78415161
Cu    -11.38870670      3.06010425     11.83287317
Cu     -3.41247684     -6.86007399     16.01081273
Cu      3.77504083      0.61199726      9.03123126
Cu     -6.44886873      1.40660503      6.84586224
Cu      1.97667277     -5.65708054      7.05429929
Cu     -7.24023614     -6.25351532     11.39346330
Cu     -7.52181356     -6.62494515     15.72729312
Cu     -4.64155940     -5.35644007      5.16231113
Cu     -8.73514479     -4.37186752     15.65154092
Cu    -11.67080680      0.71407630     12.85609342
Cu     -3.19370042      6.66845951     12.60745900
Cu     -4.92086833     -2.67968608     11.36230021
Cu     -5.25711015     -6.54834565     12.99958315
Cu     -1.56509026     -1.86937072     12.06571483
Cu     -9.49996209     -6.27910046     14.09593481
Cu     -6.03903567     -0.44781183     11.22056979
Cu     -3.94481084      5.34700791      3.90292334
Cu     -6.28472319     -1.84188464     13.22435132
Cu     -2.54377223     -1.26353509     15.42795701
Cu     -6.82011299     -2.33497369      9.77679271
Cu     -7.10191341     -7.18189904      8.99981413
Cu     -0.25531342      3.24253637      9.14228694
Cu      1.08291176     -7.58952063     10.95287020
Cu     -0.99376150     -5.31868099     12.68157451
Cu     -5.13788668     -4.08556750     13.31944736
Cu     -7.62461612      2.04270578     16.90789883
Cu     -6.25870086      6.34444534      7.59179203
Cu    -12.31620544     -2.87637656      7.47237663
Cu     -2.10273551      2.60317593      5.14531819
Cu     -1.39004395     -3.46147373      8.25358244
Cu     -8.33923462     -8.00033743      6.96125691
Cu    -10.81266473      0.23823491      8.52140960
Cu     -2.96815265     -4.00568121     12.03635554
Cu      0.02887700      4.74078347      7.13458153
Cu      0.68866968     -0.80063485     11.76279855
Cu      2.38520745     -0.91256757      5.08681102
Cu      0.02139249      3.69715061     13.55441350
Cu     -5.72396859     -3.62525139      3.60197603
Cu     -9.06273666     -1.45076794      4.79854912
Cu     -3.17665825     -5.44023549     14.02545103
Cu      2.03732390      3.31460234      6.44029738
Cu      0.82867682     -0.40249202     16.09884428
Cu     -4.27013020      4.93961033      8.24594388
Cu     -7.32951691      2.85543542     13.48515835
Cu     -5.73340795      6.81336739     12.43250842
Cu     -1.18688112     -1.10718470      7.27959419
Cu     -6.93602096     -4.34993089      1.59714590
Cu     -1.53315210     -0.19851093      1.81821047
Cu     -6.87331652     -1.33138629      3.45368276
Cu     -4.53332212     -2.89081316      5.62710541
Cu     -2.02400352     -3.01172019      5.85448235
Cu     -3.13076623     -0.75457678      5.65703112
Cu     -1.05135874     -7.81608642     12.32946570
Cu      0.70480485     -4.75202710      2.21033819
Cu     -8.42415970      2.71958231      6.20048469
Cu    -10.75668162      2.61231696     14.29082397
Cu      2.03400954      2.29384057     12.76740660
Cu    -10.95763374      0.26642651     15.26304660
Cu    -10.71823278     -4.01128700     13.99607961
Cu     -2.21454654      2.56761333     13.84168192
Cu     -1.01550204      3.28139413     15.85809040
Cu     -0.59011224     -1.53325778      9.72797898
Cu     -0.14789307      2.25243311      6.77261460
Cu     -7.46477635     -7.69783214     13.40198832
Cu     -4.35611272     -4.50382363      1.75866073
Cu     -4.75354697     -7.80523087      4.76061626
Cu     -3.41265444      1.82268227     11.82523442
Cu     -3.27170699     -7.93782863     13.69299045
Cu     -8.23840989     -3.45071304      3.50301676
Cu     -3.56333767      3.50311162     15.75530532
Cu     -2.90671766      0.66707338      3.66449627
Cu     -5.35618065     -5.50279353     15.29260302
Cu    -10.24400073     -4.15559318      8.12689488
Cu     -8.58150967      1.26108167      8.19498453
Cu      3.07552853     -1.34018147      7.53193001
Cu     -5.46311527      0.81272720      3.48725467
Cu    -10.43310830     -6.63465034      7.71320299
Cu      2.37314909     -4.48045623     13.32992264
Cu    -12.76371075      1.54793888      7.88546690
Cu     -5.32802975     -2.55650337     17.33187437
Cu     -4.60148934      1.04473131      9.82185418
Cu     -0.51866965     -2.57892314     16.15136827
Cu     -6.12104695     -6.84333535      6.64756441
Cu     -6.00349547     -4.41908746      7.05399866
Cu     -5.06267355      1.91083432     17.12066940
Cu     -4.77320036      2.76179687     13.71633834
Cu     -4.08924305     -0.03885308      1.55105382
Cu     -5.85551415      4.39376241     12.05307470
Cu     -8.40206996     -5.87516416      3.02069546
Cu     -3.45739726     -4.56396778      7.23122897
Cu     -5.86709838     -2.00604779      7.49024773
Cu     -7.20198631     -5.16232684      5.03695021
Cu     -5.14878428     -7.53712788     10.63128940
Cu    -11.45108567     -4.88968230      6.11582382
Cu     -5.57369118     -6.91745747     17.26217139
Cu     -4.16128657      7.35497561      8.65573332
Cu     -6.55733047      2.39206378      9.20074646
Cu     -1.55313684     -8.38751963      7.43512106
Cu     -7.19600237     -9.59954016      8.60051254
Cu     -6.23937686      2.83859715      4.85907981
Cu      1.62435104     -2.45190988     14.72731969
Cu     -2.86009289     -4.98948145      9.68010083
Cu     -3.69345985      1.03120036     15.27841667
Cu     -2.22208838      7.00411685     10.27422413
Cu    -12.49069367     -1.25424865     11.35404382
Cu    -11.04447045     -0.14546506      4.15705804
Cu     -9.60817660     -0.61568184     13.43894653
Cu     -1.17983859      0.85659942     15.37819400
Cu     -0.13497778      5.66627470      9.53261524
Cu      3.58678119     -1.77610744     10.02042199
Cu     -9.68701948      2.04093930      4.12575137
Cu     -0.70481649     -6.31382564      3.55663925
Cu     -9.43773079     -6.29203318      5.32511359
Cu     -2.18792937     -7.87619813      4.99068612
Cu     -7.04784929     -2.72557350      5.50471173
Cu    -10.10654005     -1.79680871      7.12109443
Cu     -5.36987128     -8.97302022     12.61353658
Cu     -2.79140951     -2.56582409     10.05751084
Cu     -3.16546823     -3.77091380      3.78002726
Cu     -7.68661074      0.71822419      4.77038175
Cu     -5.14464797    -10.83236353      7.88473401
Cu     -6.62557244     -0.03186781      8.82399576
Cu      1.00237793     -0.04122931      6.92258739
Cu     -4.38288410      5.83597692     10.59992644
