         561
Cu Cu   -1788.105632   2.5779
 Cu          8.37886        29.04673        -0.94607   1
 Cu          7.17557        29.94086         1.93007   1
 Cu          8.61626        28.02317         1.24654   1
 Cu         10.54280        26.11466         0.00667   1
 Cu          6.18295        30.76540         4.98979   1
 Cu          7.57678        28.97786         4.30545   1
 Cu          9.03837        26.82516         3.36125   1
 Cu         10.68644        25.14825         2.55280   1
 Cu         12.51612        22.88663         1.38270   1
 Cu          4.92555        31.23994         7.75652   1
 Cu          6.48798        29.42778         7.17730   1
 Cu          8.06899        27.73210         6.42432   1
 Cu          9.44065        25.93574         5.67762   1
 Cu         11.30615        24.19015         4.88049   1
 Cu         12.83709        22.03353         3.87731   1
 Cu         14.53055        20.32597         3.34309   1
 Cu          3.51483        32.43547        10.26525   1
 Cu          4.85884        30.41344         9.95183   1
 Cu          6.52144        28.61370         9.52222   1
 Cu          8.17436        26.91464         8.88310   1
 Cu          9.87948        25.05919         7.89632   1
 Cu         11.64137        23.31911         7.15292   1
 Cu         13.16226        21.20186         6.41447   1
 Cu         14.81237        19.54676         5.73434   1
 Cu         16.50828        17.62357         5.28255   1
 Cu          1.83851        33.30978        12.70597   1
 Cu          3.48684        31.52463        12.60702   1
 Cu          4.94062        29.59893        12.24743   1
 Cu          6.81760        27.86887        11.78838   1
 Cu          8.38295        26.14834        11.06045   1
 Cu         10.08934        24.32856        10.25926   1
 Cu         11.56577        22.50853         9.47916   1
 Cu         13.21842        20.74636         8.87994   1
 Cu         14.82724        18.93005         8.04967   1
 Cu         16.58682        17.05653         7.80197   1
 Cu         18.26246        15.35080         7.75478   1
 Cu          3.61590        30.74048        15.32269   1
 Cu          5.10443        28.90933        14.85873   1
 Cu          6.82352        27.05687        14.17281   1
 Cu          8.61552        25.24809        13.34100   1
 Cu         10.15671        23.55207        12.59955   1
 Cu         11.74732        21.75704        11.83968   1
 Cu         13.56012        20.00330        11.31629   1
 Cu         15.13516        18.23230        10.45801   1
 Cu         16.89949        16.32358        10.08363   1
 Cu          5.09177        28.06978        17.36747   1
 Cu          6.91474        26.17320        16.71671   1
 Cu          8.66359        24.50650        15.97508   1
 Cu         10.37080        22.68019        15.02959   1
 Cu         11.99733        20.85867        14.32179   1
 Cu         13.79894        19.08501        13.58062   1
 Cu         15.42375        17.22664        12.92037   1
 Cu          7.11623        25.36165        19.21669   1
 Cu          9.15894        23.47042        18.54818   1
 Cu         10.68660        21.64087        17.45387   1
 Cu         12.56448        19.93786        16.76308   1
 Cu         13.98465        18.16492        15.92077   1
 Cu          9.40403        22.80125        20.86998   1
 Cu         11.10879        21.00647        19.81409   1
 Cu         12.82072        19.03801        18.96284   1
 Cu         11.67131        19.93317        21.81239   1
 Cu          6.31066        28.34795         0.14994   1
 Cu          8.10013        26.62906        -0.72743   1
 Cu          5.27123        29.19723         3.33470   1
 Cu          6.64247        27.41202         2.53145   1
 Cu          8.55333        25.65631         1.49379   1
 Cu         10.21010        23.53019         0.44392   1
 Cu          4.10674        29.74876         5.82463   1
 Cu          5.59163        28.08048         5.42319   1
 Cu          7.16713        26.20535         4.62809   1
 Cu          8.89845        24.27416         3.88808   1
 Cu         10.66372        22.71486         2.82291   1
 Cu         12.47525        20.50881         1.93178   1
 Cu          2.63434        30.64475         8.70322   1
 Cu          4.21666        28.71464         8.08609   1
 Cu          5.97807        26.93929         7.52108   1
 Cu          7.57082        25.19286         7.02264   1
 Cu          9.29826        23.37907         6.18350   1
 Cu         10.97309        21.76325         5.31855   1
 Cu         12.51099        19.61666         4.53916   1
 Cu         14.27212        17.90095         4.05144   1
 Cu          1.16113        31.55310        11.22210   1
 Cu          2.75198        29.72074        11.01079   1
 Cu          4.31542        27.93330        10.39931   1
 Cu          6.06507        26.32346         9.95685   1
 Cu          7.85643        24.35001         9.29807   1
 Cu          9.38519        22.61375         8.43505   1
 Cu         10.97670        20.85987         7.79052   1
 Cu         12.62304        18.81253         7.06947   1
 Cu         14.34372        17.08219         6.51418   1
 Cu         16.28546        15.37286         6.10097   1
 Cu          1.46988        31.00307        14.03731   1
 Cu          2.94260        29.09704        13.56493   1
 Cu          4.55036        27.20399        12.87811   1
 Cu          6.25869        25.39974        12.43269   1
 Cu          7.78137        23.70722        11.64919   1
 Cu          9.51409        21.91027        10.83678   1
 Cu         11.05286        20.13069        10.22904   1
 Cu         12.76914        18.42520         9.39585   1
 Cu         14.26009        16.54818         8.92644   1
 Cu         15.82074        14.70507         8.63590   1
 Cu          3.01458        28.21530        15.94488   1
 Cu          4.82185        26.46129        15.43257   1
 Cu          6.48121        24.57577        14.83401   1
 Cu          8.21683        22.84775        14.03228   1
 Cu          9.73107        21.07829        13.33929   1
 Cu         11.38542        19.34584        12.48899   1
 Cu         13.25134        17.50196        11.68491   1
 Cu         14.85070        15.53104        11.08694   1
 Cu          4.84718        25.72093        18.10021   1
 Cu          6.80975        23.87886        17.22213   1
 Cu          8.55621        21.99046        16.49072   1
 Cu         10.03995        20.03115        15.54949   1
 Cu         11.68706        18.34688        14.81374   1
 Cu         13.27209        16.50855        14.05376   1
 Cu          7.14959        23.00116        19.81518   1
 Cu          8.81433        20.96133        18.85345   1
 Cu         10.51162        19.17744        17.87526   1
 Cu         11.90740        17.40730        17.13214   1
 Cu          9.22391        20.26341        21.15670   1
 Cu         10.81704        18.34793        20.05942   1
 Cu          4.49280        27.34862         1.52981   1
 Cu          6.33812        25.71669         0.57978   1
 Cu          7.99891        23.95646        -0.41564   1
 Cu          3.05621        28.11860         3.77631   1
 Cu          4.78172        26.33645         3.73970   1
 Cu          6.62260        24.66413         2.91936   1
 Cu          8.33412        23.01381         1.91514   1
 Cu         10.23958        21.09810         1.08940   1
 Cu          2.12430        28.82870         7.09066   1
 Cu          3.55174        27.04224         6.30974   1
 Cu          5.32188        25.28513         6.02844   1
 Cu          6.95560        23.58864         5.24150   1
 Cu          8.68910        21.88400         4.22241   1
 Cu         10.42236        19.94102         3.29802   1
 Cu         11.94855        17.81216         2.83606   1
 Cu          0.39260        29.72315         9.79576   1
 Cu          2.13997        27.98069         9.26830   1
 Cu          3.83947        26.27366         8.66103   1
 Cu          5.63699        24.41260         8.29896   1
 Cu          7.27425        22.63209         7.42341   1
 Cu          8.74024        20.91813         6.56652   1
 Cu         10.32753        19.30881         5.72658   1
 Cu         12.07076        17.15774         5.27639   1
 Cu         13.78693        15.39709         4.85798   1
 Cu          0.75287        29.27845        12.33835   1
 Cu          2.29752        27.32579        11.76670   1
 Cu          4.05661        25.53876        11.21046   1
 Cu          5.59844        23.75767        10.63170   1
 Cu          7.23669        21.98684         9.77384   1
 Cu          8.79145        20.17123         8.98303   1
 Cu         10.48584        18.42223         8.30953   1
 Cu         12.08392        16.44943         7.54287   1
 Cu         13.75676        14.69213         7.30894   1
 Cu          0.81785        28.65371        14.77890   1
 Cu          2.46987        26.60569        14.24524   1
 Cu          4.21060        24.82301        13.58841   1
 Cu          5.87131        22.95012        12.89382   1
 Cu          7.44352        21.16846        12.33651   1
 Cu          8.90523        19.39632        11.42948   1
 Cu         10.61137        17.77069        10.63353   1
 Cu         12.15638        15.83150        10.14639   1
 Cu         13.52421        13.95498         9.70784   1
 Cu          2.74721        25.89931        16.74618   1
 Cu          4.56241        24.14142        16.14337   1
 Cu          6.24647        22.28730        15.34802   1
 Cu          7.70779        20.51206        14.70710   1
 Cu          9.30540        18.70620        13.77110   1
 Cu         10.96630        16.94383        12.92810   1
 Cu         12.49438        15.05222        12.32094   1
 Cu          4.91100        23.28744        18.68864   1
 Cu          6.44764        21.42014        17.87735   1
 Cu          8.03289        19.47513        16.98786   1
 Cu          9.44034        17.67874        15.94781   1
 Cu         11.18120        16.07759        15.16406   1
 Cu          6.81046        20.64021        20.16046   1
 Cu          8.28788        18.62233        19.24945   1
 Cu          9.82441        16.79116        18.25806   1
 Cu          2.39777        26.14951         2.67049   1
 Cu          4.21236        24.81714         1.68870   1
 Cu          6.08389        23.07240         1.10884   1
 Cu          7.90266        21.47946         0.17808   1
 Cu          1.41984        26.91448         5.28741   1
 Cu          2.90266        25.14064         4.80793   1
 Cu          4.66922        23.65305         4.00908   1
 Cu          6.42303        22.00470         3.27605   1
 Cu          8.06403        20.39361         2.39249   1
 Cu         10.05512        18.58414         1.32034   1
 Cu          0.05214        27.73319         7.98185   1
 Cu          1.60566        25.89685         7.71496   1
 Cu          3.34504        24.38452         7.06793   1
 Cu          5.05113        22.69614         6.42093   1
 Cu          6.54260        20.98074         5.47432   1
 Cu          8.13319        19.39873         4.68096   1
 Cu          9.98223        17.65605         4.07433   1
 Cu         11.64696        15.53394         3.57623   1
 Cu          0.18677        27.43946        10.67200   1
 Cu          1.74946        25.47078        10.08679   1
 Cu          3.46000        23.74450         9.45524   1
 Cu          5.07853        22.05636         8.79379   1
 Cu          6.57585        20.28523         7.84462   1
 Cu          8.30905        18.57165         7.10878   1
 Cu          9.85034        16.75347         6.23945   1
 Cu         11.50063        14.80510         5.87887   1
 Cu          0.34175        26.92251        13.03990   1
 Cu          1.97374        24.88819        12.59488   1
 Cu          3.58338        23.11992        11.92035   1
 Cu          4.99974        21.23557        11.11457   1
 Cu          6.62530        19.54088        10.21655   1
 Cu          8.17102        17.86598         9.42934   1
 Cu          9.96606        15.97133         8.69403   1
 Cu         11.43554        14.05586         8.16044   1
 Cu          0.64075        26.55773        15.84893   1
 Cu          2.41571        24.29767        15.05807   1
 Cu          3.83738        22.42458        14.37894   1
 Cu          5.25918        20.69455        13.61504   1
 Cu          6.70342        18.92742        12.70649   1
 Cu          8.32111        17.14859        11.88010   1
 Cu          9.87990        15.52545        11.12392   1
 Cu         11.38811        13.50637        10.72752   1
 Cu          2.62587        23.66885        17.81824   1
 Cu          4.30085        21.80097        16.94702   1
 Cu          5.73270        19.94767        16.05151   1
 Cu          7.02616        17.93632        14.97220   1
 Cu          8.56481        16.15341        14.22467   1
 Cu         10.17106        14.50961        13.30427   1
 Cu          4.48774        20.88086        19.17130   1
 Cu          6.02427        18.91302        18.40041   1
 Cu          7.41643        17.11396        17.42175   1
 Cu          8.92340        15.26704        16.43394   1
 Cu          0.48076        24.96510         4.14774   1
 Cu          2.29453        23.47031         3.04662   1
 Cu          4.12986        21.97245         2.25794   1
 Cu          5.75596        20.61781         1.29765   1
 Cu          7.58007        18.90889         0.36078   1
 Cu         -0.56362        25.84597         6.52199   1
 Cu          1.09839        24.00474         6.26838   1
 Cu          2.86673        22.62863         5.27043   1
 Cu          4.43112        21.08607         4.45377   1
 Cu          6.07852        19.48552         3.49331   1
 Cu          7.86604        18.05351         2.76209   1
 Cu          9.60192        16.30384         2.04173   1
 Cu         -0.51096        25.51451         9.10101   1
 Cu          1.01242        23.39876         8.69090   1
 Cu          2.65082        22.00026         7.72773   1
 Cu          4.28436        20.45163         6.73223   1
 Cu          6.04306        18.71197         5.95616   1
 Cu          7.78217        16.98933         5.02924   1
 Cu          9.31113        15.19250         4.36994   1
 Cu         -0.14933        24.85370        11.57523   1
 Cu          1.36318        23.06846        11.02765   1
 Cu          2.71136        21.41123        10.09429   1
 Cu          4.30653        19.66447         9.20069   1
 Cu          5.99121        17.75451         8.25860   1
 Cu          7.71512        16.24612         7.37782   1
 Cu          9.20534        14.48310         6.86168   1
 Cu          0.16106        24.66681        14.28292   1
 Cu          1.52536        22.57459        13.51108   1
 Cu          2.87404        20.82459        12.56549   1
 Cu          4.58252        18.95045        11.60089   1
 Cu          6.07374        17.12977        10.87828   1
 Cu          7.77046        15.54639         9.83548   1
 Cu          9.29920        13.69385         9.18974   1
 Cu          0.52729        24.20859        16.74397   1
 Cu          1.92761        22.02479        15.87656   1
 Cu          3.25974        20.11115        14.90325   1
 Cu          4.71638        18.22789        14.10712   1
 Cu          6.23619        16.36215        13.32595   1
 Cu          7.76218        14.72465        12.30532   1
 Cu          9.18685        12.89715        11.57693   1
 Cu          2.34790        21.26645        18.19385   1
 Cu          3.72069        19.45580        17.24890   1
 Cu          5.07961        17.53735        16.50674   1
 Cu          6.52267        15.58937        15.64712   1
 Cu          8.09493        13.76786        14.55075   1
 Cu         -1.19963        23.60099         5.24062   1
 Cu          0.56713        22.12690         4.61306   1
 Cu          2.28895        20.80629         3.45124   1
 Cu          3.92902        19.38625         2.26199   1
 Cu          5.74132        17.99946         1.56380   1
 Cu          7.45714        16.50235         0.78834   1
 Cu         -1.22811        23.61001         7.66106   1
 Cu          0.26925        21.77486         6.95647   1
 Cu          1.96822        20.28339         5.81443   1
 Cu          3.64788        18.81311         4.72636   1
 Cu          5.47179        17.20777         4.10128   1
 Cu          7.24447        15.71220         2.93452   1
 Cu         -0.93089        23.14984         9.93346   1
 Cu          0.50449        21.09745         9.32452   1
 Cu          2.12633        19.63619         8.18966   1
 Cu          3.78574        18.13139         7.16479   1
 Cu          5.51993        16.29420         6.37602   1
 Cu          7.14920        14.77189         5.34695   1
 Cu         -0.46514        22.66565        12.43800   1
 Cu          0.61878        20.61746        11.63691   1
 Cu          2.23581        19.04496        10.76319   1
 Cu          3.81405        17.37108         9.56712   1
 Cu          5.47555        15.57418         8.95335   1
 Cu          7.00310        13.87790         7.57978   1
 Cu         -0.31926        22.40042        15.07701   1
 Cu          1.00340        20.29134        14.08456   1
 Cu          2.45105        18.50646        13.13839   1
 Cu          3.98265        16.47747        12.21507   1
 Cu          5.50394        14.84949        11.46910   1
 Cu          6.84814        13.35347        10.28856   1
 Cu          0.10750        22.03380        17.52025   1
 Cu          1.29396        19.73406        16.53979   1
 Cu          2.73286        17.81512        15.49454   1
 Cu          4.29705        15.94813        14.67991   1
 Cu          5.46462        13.88131        13.90260   1
 Cu          6.93834        12.48876        12.71519   1
 Cu          9.38589        30.48782         0.63684   1
 Cu         10.70323        28.66941        -0.38596   1
 Cu          8.12231        31.41865         3.67963   1
 Cu          9.61300        29.48650         2.86934   1
 Cu         10.84605        27.68770         1.90143   1
 Cu         12.78125        25.58760         1.16825   1
 Cu          7.11286        32.15652         6.82696   1
 Cu          8.60000        30.42836         5.94566   1
 Cu          9.95422        28.48857         5.03506   1
 Cu         11.59650        26.71711         4.39646   1
 Cu         13.09397        24.49907         3.21933   1
 Cu         14.95826        22.60763         2.51444   1
 Cu          5.68653        33.03420         9.28241   1
 Cu          7.13607        30.99409         8.96896   1
 Cu          8.78173        29.30397         8.27864   1
 Cu         10.27886        27.47807         7.45750   1
 Cu         11.90791        25.70987         6.62686   1
 Cu         13.50373        23.69755         5.81864   1
 Cu         15.23028        21.88685         5.07820   1
 Cu         16.94128        19.98242         4.39150   1
 Cu          4.14933        33.98900        12.05390   1
 Cu          5.59877        32.06890        11.61453   1
 Cu          7.24476        30.27187        11.32920   1
 Cu          9.03146        28.44907        10.62431   1
 Cu         10.47004        26.73237         9.75816   1
 Cu         12.15859        24.99846         9.04744   1
 Cu         13.84040        23.11908         8.23539   1
 Cu         15.53049        21.26145         7.48187   1
 Cu         16.97260        19.43224         6.87679   1
 Cu         18.58609        17.54357         6.50488   1
 Cu          3.90035        33.23004        14.44268   1
 Cu          5.57501        31.41069        14.02146   1
 Cu          7.14780        29.49869        13.69204   1
 Cu          9.01646        27.64388        13.06026   1
 Cu         10.74692        25.98972        12.17295   1
 Cu         12.31731        24.15981        11.57077   1
 Cu         13.97962        22.42795        10.63849   1
 Cu         15.64437        20.65106         9.91717   1
 Cu         17.36871        18.95843         9.32152   1
 Cu         19.00046        17.20278         8.96514   1
 Cu          5.66621        30.44641        16.62162   1
 Cu          7.27437        28.55785        16.11559   1
 Cu          9.15682        26.91087        15.40312   1
 Cu         10.84189        25.06065        14.61192   1
 Cu         12.42934        23.40870        13.77063   1
 Cu         14.10684        21.74626        13.08306   1
 Cu         15.85331        20.03844        12.41782   1
 Cu         17.50194        18.17349        11.79594   1
 Cu          7.65654        27.79831        18.54344   1
 Cu          9.16162        25.89418        17.94514   1
 Cu         10.99804        24.05874        16.96530   1
 Cu         12.79946        22.47831        16.09111   1
 Cu         14.57280        20.85556        15.34769   1
 Cu         16.07573        18.93601        14.72146   1
 Cu          9.66988        25.20818        20.21783   1
 Cu         11.49982        23.43209        19.36331   1
 Cu         13.09146        21.75012        18.33555   1
 Cu         14.81656        20.07224        17.60450   1
 Cu         11.89036        22.35153        21.73761   1
 Cu         13.60546        20.65166        20.65664   1
 Cu         10.29525        31.89955         2.42419   1
 Cu         11.68363        30.14220         1.39705   1
 Cu         12.87280        27.97734         0.59978   1
 Cu          9.18981        32.78111         5.63201   1
 Cu         10.62922        31.02173         4.59363   1
 Cu         11.96150        29.17233         3.65030   1
 Cu         13.43210        27.09213         2.95849   1
 Cu         15.12727        25.00262         1.90163   1
 Cu          7.95230        33.84019         8.44892   1
 Cu          9.36692        31.74664         7.89468   1
 Cu         10.85304        29.91407         6.87815   1
 Cu         12.46136        28.14588         6.25976   1
 Cu         13.81911        26.02711         5.16231   1
 Cu         15.41042        24.18772         4.28710   1
 Cu         17.22690        22.32997         3.71426   1
 Cu          6.34294        34.63299        11.19577   1
 Cu          8.01200        32.72091        10.56603   1
 Cu          9.56191        30.93249        10.07443   1
 Cu         11.07799        28.95490         9.29761   1
 Cu         12.73564        27.27177         8.68403   1
 Cu         14.08608        25.48349         7.60701   1
 Cu         15.84088        23.69212         6.75762   1
 Cu         17.65996        21.67807         6.10999   1
 Cu         19.10701        19.88180         5.64672   1
 Cu          6.11525        33.84763        13.48241   1
 Cu          7.72188        31.84622        12.98680   1
 Cu          9.45730        29.99264        12.50044   1
 Cu         11.11304        28.39312        11.70695   1
 Cu         12.77465        26.61893        11.01244   1
 Cu         14.36296        24.90484        10.05194   1
 Cu         16.08279        23.09110         9.28997   1
 Cu         17.77112        21.36165         8.59929   1
 Cu         19.31298        19.48070         8.01288   1
 Cu          5.85102        32.72658        15.99160   1
 Cu          7.72731        31.06779        15.49011   1
 Cu          9.35157        29.28613        14.84182   1
 Cu         11.24804        27.51651        14.03174   1
 Cu         12.99398        25.83661        13.34610   1
 Cu         14.69942        24.19613        12.29992   1
 Cu         16.30023        22.45743        11.80637   1
 Cu         17.85846        20.73539        11.08832   1
 Cu         19.49290        19.17399        10.60435   1
 Cu          7.75725        30.23183        17.87299   1
 Cu          9.67039        28.56411        17.27406   1
 Cu         11.32798        26.72270        16.52124   1
 Cu         13.11618        25.05449        15.80961   1
 Cu         14.82775        23.39554        14.78237   1
 Cu         16.41658        21.57913        14.14485   1
 Cu         18.20771        19.86589        13.48041   1
 Cu          9.87497        27.58715        19.67893   1
 Cu         11.64502        25.73313        18.84787   1
 Cu         13.55134        24.19474        18.06896   1
 Cu         15.23161        22.60513        17.07180   1
 Cu         16.84774        20.70849        16.25442   1
 Cu         11.96679        24.90097        21.15609   1
 Cu         13.82914        23.14682        20.43656   1
 Cu         15.33719        21.71962        19.35147   1
 Cu         11.06833        33.34447         4.18956   1
 Cu         12.66025        31.52490         3.19482   1
 Cu         13.96268        29.45210         2.25454   1
 Cu         15.33065        27.43612         1.57761   1
 Cu         10.13675        34.39632         7.42411   1
 Cu         11.47340        32.38255         6.47889   1
 Cu         12.90593        30.48199         5.58752   1
 Cu         14.34955        28.53462         4.65484   1
 Cu         15.73415        26.54666         3.71589   1
 Cu         17.50783        24.77989         2.93785   1
 Cu          8.79791        35.08042        10.34287   1
 Cu         10.22533        33.42138         9.56977   1
 Cu         11.71925        31.39137         8.77036   1
 Cu         13.31953        29.54471         8.05231   1
 Cu         14.74159        27.82327         7.12655   1
 Cu         16.05086        25.93248         5.98677   1
 Cu         17.82699        23.97126         5.40898   1
 Cu         19.64845        22.18649         4.91471   1
 Cu          8.50010        34.21227        12.59732   1
 Cu         10.06151        32.22277        11.98274   1
 Cu         11.91849        30.65582        11.21398   1
 Cu         13.43932        28.94947        10.40192   1
 Cu         14.94725        27.25265         9.60306   1
 Cu         16.31919        25.56392         8.56706   1
 Cu         18.13261        23.65527         7.79283   1
 Cu         19.83174        21.81646         7.39308   1
 Cu          8.12203        33.44041        14.88955   1
 Cu          9.91701        31.63719        14.35577   1
 Cu         11.64614        30.03821        13.50917   1
 Cu         13.47075        28.19433        12.76284   1
 Cu         15.03644        26.53724        11.99360   1
 Cu         16.68918        24.88571        11.02840   1
 Cu         18.33938        23.06408        10.20624   1
 Cu         20.13235        21.31525         9.85446   1
 Cu          8.11897        32.65745        17.16708   1
 Cu         10.01270        30.88046        16.80155   1
 Cu         11.70108        29.08338        15.96443   1
 Cu         13.57726        27.39890        15.15519   1
 Cu         15.11951        25.77012        14.31688   1
 Cu         16.96579        24.18341        13.62521   1
 Cu         18.61766        22.47676        12.64115   1
 Cu         20.20584        20.81956        12.28434   1
 Cu          9.71096        30.00007        19.28443   1
 Cu         11.89319        28.19449        18.51465   1
 Cu         13.82482        26.47094        17.67048   1
 Cu         15.51199        24.91053        16.67625   1
 Cu         17.22129        23.22676        15.76269   1
 Cu         18.81219        21.62225        15.07076   1
 Cu         12.13896        27.22319        20.77263   1
 Cu         14.02425        25.72954        19.97977   1
 Cu         15.79266        24.16699        19.01800   1
 Cu         17.39666        22.46335        18.09685   1
 Cu         12.32098        34.68312         6.01929   1
 Cu         13.48487        32.75235         5.08654   1
 Cu         14.85585        30.81766         4.11324   1
 Cu         16.39134        28.89917         3.15605   1
 Cu         17.66686        27.14127         2.13368   1
 Cu         11.17720        35.84806         9.42383   1
 Cu         12.43918        33.84227         8.30066   1
 Cu         13.75032        31.85857         7.44403   1
 Cu         15.20849        30.12413         6.48195   1
 Cu         16.77289        28.35009         5.62185   1
 Cu         17.98027        26.46012         4.55720   1
 Cu         19.62072        24.41985         3.88158   1
 Cu         10.89652        34.73988        11.66517   1
 Cu         12.34048        33.10363        10.63889   1
 Cu         13.94601        31.33469         9.90275   1
 Cu         15.55405        29.53807         8.99828   1
 Cu         16.97969        27.83040         8.06033   1
 Cu         18.43256        25.97853         7.05311   1
 Cu         20.23688        24.25214         6.42889   1
 Cu         10.66359        33.95145        13.96625   1
 Cu         12.29722        32.38404        13.06284   1
 Cu         14.17234        30.54126        12.33682   1
 Cu         15.81382        28.93059        11.48974   1
 Cu         17.28013        27.27720        10.42795   1
 Cu         18.73127        25.49753         9.49766   1
 Cu         20.46675        23.71727         9.11088   1
 Cu         10.35029        33.18497        16.40381   1
 Cu         12.13558        31.53477        15.58636   1
 Cu         14.00163        29.81744        14.58872   1
 Cu         15.63010        28.22695        13.81485   1
 Cu         17.31058        26.63149        12.81768   1
 Cu         19.01418        24.91020        12.06634   1
 Cu         20.68589        23.19779        11.49023   1
 Cu          9.87532        32.47135        18.75058   1
 Cu         12.04986        30.54928        17.91992   1
 Cu         13.81475        29.06085        17.15082   1
 Cu         15.76084        27.45758        16.19708   1
 Cu         17.52591        25.84754        15.39086   1
 Cu         19.19419        24.14421        14.60969   1
 Cu         20.87914        22.68660        13.78886   1
 Cu         11.94142        29.62183        20.28650   1
 Cu         14.11869        28.16520        19.54602   1
 Cu         16.16741        26.68115        18.60494   1
 Cu         17.71759        24.97202        17.70880   1
 Cu         19.39028        23.35595        17.01189   1
 Cu         13.20872        35.99034         8.14849   1
 Cu         14.55094        34.04726         6.97511   1
 Cu         15.97229        32.28823         5.86876   1
 Cu         17.29363        30.56262         4.94297   1
 Cu         18.80733        28.81463         4.05875   1
 Cu         19.87869        26.80999         3.08036   1
 Cu         13.15355        35.29169        10.57673   1
 Cu         14.83460        33.51528         9.41691   1
 Cu         16.10438        31.72638         8.26185   1
 Cu         17.78937        30.01918         7.39589   1
 Cu         19.16353        28.17657         6.38244   1
 Cu         20.42784        26.36094         5.48411   1
 Cu         13.09791        34.71403        13.00780   1
 Cu         14.35203        32.92171        11.80613   1
 Cu         16.19959        31.38623        10.83158   1
 Cu         17.75664        29.71939         9.99018   1
 Cu         19.35180        27.95033         9.08681   1
 Cu         20.78831        26.29357         8.03815   1
 Cu         12.74644        33.77778        15.22735   1
 Cu         14.60783        32.22901        14.30650   1
 Cu         16.39148        30.77768        13.28637   1
 Cu         18.02648        28.99045        12.40883   1
 Cu         19.52574        27.27758        11.53444   1
 Cu         20.94894        25.64481        10.57625   1
 Cu         12.65063        33.05650        17.54908   1
 Cu         14.26193        31.46429        16.77121   1
 Cu         16.22369        30.01489        15.66035   1
 Cu         17.87870        28.26661        14.80805   1
 Cu         19.54386        26.55222        13.97804   1
 Cu         21.26486        24.97921        13.10149   1
 Cu         12.12329        32.16989        19.85390   1
 Cu         14.03139        30.69207        19.13559   1
 Cu         16.10965        29.10371        17.96925   1
 Cu         17.93782        27.48223        17.12092   1
 Cu         19.64437        26.01346        16.38263   1
 Cu         21.32954        24.30424        15.58060   1
